/*--------------------------------*- C++ -*----------------------------------*\
  =========                 |
  \\      /  F ield         | OpenFOAM: The Open Source CFD Toolbox
   \\    /   O peration     | Website:  https://openfoam.org
    \\  /    A nd           | Version:  6
     \\/     M anipulation  |
\*---------------------------------------------------------------------------*/
FoamFile
{
    version     2.0;
    format      ascii;
    class       volScalarField;
    object      V;
}
// * * * * * * * * * * * * * * * * * * * * * * * * * * * * * * * * * * * * * //
#include "$FOAM_CASE/constant/initialConditions";

dimensions      [1 2 -3 0 0 -1 0];

internalField   uniform 0;

boundaryField
{
    inlet
    {
        type            fixedJump;
        jump            uniform $V0;
        patchType       cyclic;
        value           $internalField;
    }
    outlet
    {
        type            fixedJump;
        patchType       cyclic;
        value           $internalField;
    }
    lowerWall
    {
        type            cyclic;
    }
    upperWall
    {
        type            cyclic;
    }
    emptyWall
    {
        type            empty;
    }
    solid_to_fluid
    {
        type            mappedContinuity;
        Dnbr            uniform $epsilonFluid;
        RobinF          uniform 0;
        RobinK          uniform 0;
        RobinD          uniform $epsilonSolid;
        value           $internalField;
    }

    #includeEtc "caseDicts/setConstraintTypes"
}


// ************************************************************************* //
