/*--------------------------------*- C++ -*----------------------------------*\
  =========                 |
  \\      /  F ield         | OpenFOAM: The Open Source CFD Toolbox
   \\    /   O peration     | Website:  https://openfoam.org
    \\  /    A nd           | Version:  7
     \\/     M anipulation  |
\*---------------------------------------------------------------------------*/
FoamFile
{
    version     2.0;
    format      ascii;
    class       dictionary;
    location    "system/solid";
    object      fvSolution;
}
// * * * * * * * * * * * * * * * * * * * * * * * * * * * * * * * * * * * * * //

solvers
{
    V
    {
        solver          PBiCGStab;
        preconditioner  FDIC;
        smoother        FDIC;
        tolerance       1e-8;//1e-12;
        relTol          1e-3;
    }


    VFinal
    {
        $V;
        relTol          1e-3;
    }


    "C.*"
    {
        solver          PBiCGStab;
        preconditioner  FDIC;
        smoother        FDIC;
        tolerance       1e-8;//1e-15;
        relTol          1e-3;
    }
}

PIMPLE
{
    outerCorrectorResidualControl //residualControl
    {
        ".*"
        {
            tolerance 1e-7;
            relTol    1e-3;
        }

    }
    residualControl
    {
        ".*"   1e-6;//1e-12
    }

    // nOuterCorrectors 1;
    nNonOrthogonalCorrectors 0;
    forceVRef 1;
    VRefCell        0;
    VRefValue       0;
}

relaxationFactors
{
    equations
    {
        ".*" 1;
    }
}

// ************************************************************************* //
