/*--------------------------------*- C++ -*----------------------------------*\
  =========                 |
  \\      /  F ield         | OpenFOAM: The Open Source CFD Toolbox
   \\    /   O peration     | Website:  https://openfoam.org
    \\  /    A nd           | Version:  7
     \\/     M anipulation  |
\*---------------------------------------------------------------------------*/
FoamFile
{
    version     2.0;
    format      ascii;
    class       dictionary;
    location    "constant";
    object      electrokineticProperties;
}
// * * * * * * * * * * * * * * * * * * * * * * * * * * * * * * * * * * * * * //
#include "$FOAM_CASE/constant/initialConditions";


epsilonR  epsilonR [ 0 0 0 0 0 0 0 ] $epsilonRSolid;//78.5;

diffusionDominant false;

electroNeutrality false;

species
(
  C.Cl
  {
    Z     Z [0 0 0 0 0 0 0]       -1;
    D     D [0 2 -1 0 0 0 0]  	  $Ds;
  }

  C.Na
  {
    Z     Z [0 0 0 0 0 0 0]       1;
    D     D [0 2 -1 0 0 0 0]      $Ds;
  }
);


// ************************************************************************* //
